60
 energy: -77.233953766549 gnorm: 0.000788696054 xtb: 6.3.2 (452493c)
Ti        1.77595930225444    0.49067472976677    0.20234234349036
O         1.66507046624103    1.96151283468260    1.86168416698059
Al        0.26192423065925    2.80940969165863    1.24555304993538
O         3.35196178948585   -0.39021217047814    1.00986430017611
Al        2.43133905601054   -1.68612830492235    1.93367373076786
O         0.95416282061087   -0.76909374080260    1.68818395974870
O         0.16504104534537    1.60564279713633   -0.11118930970811
C        -0.41802476672835   -0.73105821240062    1.99463445020538
C        -0.68904068461257    1.50501123736294   -1.21936329018489
C         2.46788202024643    1.88616119473963    3.01679872028068
C         0.68718031783971    4.60628796669093    0.39835051031714
C         3.09215406398114   -1.80485767719651    3.82886856587449
C         4.74323765283337   -0.44658534584116    0.81194105404786
C        -1.29304417156712    2.80250947491047    2.54129692077599
C         2.44384173259458   -3.27030123697305    0.67390260877900
C         3.18655091389836    2.18414457053967   -0.57795030272927
C         2.96792270893440    1.37822634413218   -1.66840719622543
H        -0.63800869853493   -1.43307819098804    2.80535207369423
H        -0.69940147609362    0.28310481705166    2.30491559108285
H        -1.00759700591464   -1.01630771882336    1.11283886085212
H        -0.84841378692135    0.44718624057532   -1.48483916945269
H        -0.25297829626768    2.01887930214720   -2.08972840584045
H         3.46889996628731    2.28352325650708    2.80730528692960
H         2.55729107015157    0.83977577702879    3.33791344179970
H         2.02526245686223    2.47397568044235    3.82729198177934
H         0.72529700811429    4.65334536056179   -0.69623496598468
H        -0.13552399293680    5.26280733620107    0.68968098624306
H         1.59103801292647    5.10793117607085    0.75723533618012
H         3.31217087215855   -2.86233668582910    3.98357845871932
H         2.36277428759472   -1.53818839750134    4.59888371273126
H         4.01238588802833   -1.26769344946251    4.07678958328649
H         4.98198013244694   -0.50016753695037   -0.25726481943689
H         5.23287322799141    0.43367329355794    1.24762471988694
H         5.14859515547018   -1.34000853813140    1.30119606328460
H        -1.02203718996035    2.49812946367610    3.55762698121350
H        -2.21839504051165    2.27115601110835    2.30243248062495
H        -1.57300159024702    3.85484165989159    2.62312395844817
H         3.42645221296264   -3.74529375159033    0.60497239523658
H         2.14953872832521   -3.01121969845929   -0.35360208660928
H         1.76496713387417   -4.06262474700302    0.99999053549265
H         1.53244885101123   -0.25602166094579   -0.58837215009082
H         2.22378537101819    1.65058206110404   -2.41181623390710
H         3.70310561947383    0.63979351620831   -1.97887604097455
H         2.61523107247752    3.09764603301797   -0.45766940490389
H         4.11330213765198    2.11135687405056   -0.01856610872277
C        -2.03019851272920    2.16348037115720   -0.90686092665586
H        -1.82736131182871    3.17982195797091   -0.53044134622681
H        -2.53806270857191    1.60017211680752   -0.10960895038715
O        -2.81274826877092    2.19399562491457   -2.07403477624561
C        -4.07883698829402    2.77951609282853   -1.86862143005482
H        -3.97518092243521    3.81585978817194   -1.51772075071270
H        -4.64833611893174    2.21969335375107   -1.11308012080227
C        -4.83843449893566    2.76044011583546   -3.19016603228789
H        -4.91940096413452    1.72356711362415   -3.54900990745551
H        -4.28111533517695    3.33797214258002   -3.94243914747709
O        -6.11363109906936    3.31617071770159   -2.97814059676953
C        -6.89781307916950    3.34325410102451   -4.14369477442799
H        -7.85135177385929    3.78666256835972   -3.86514545950454
H        -7.06410345103478    2.33212889248772   -4.53544707881507
H        -6.42641459255385    3.94956940647285   -4.92700304689879
