  25
        -41.85545487
 C          0.3394153176        2.0836521866        1.1065696898
 C          0.3135851627        2.0752322515       -0.3001514228
 C          1.1794722432        1.2259608422       -1.0179107580
 C          2.0585980113        0.3871137031       -0.3110317220
 C          2.0665748713        0.3607041955        1.0964786954
 C          1.2107985926        1.2295174992        1.8045941383
 CR        -0.0043511200       -0.0082629677        0.4005212864
 H         -0.2868633571        2.7762088812        1.6512814691
 H         -0.3248310233        2.7627481799       -0.8363083493
 H          1.2169409266        1.2572640843       -2.0974031012
 CL         3.1206341346       -0.6309189413       -1.1721686378
 H          2.7834785168       -0.2571790333        1.6176376050
 H          1.2650962600        1.2696101795        2.8833686356
 C         -1.2141954136       -1.2602619146        1.7841549411
 C         -0.3424925761       -2.1033595261        1.0732502175
 C         -0.3125362306       -2.0679928337       -0.3332004799
 C         -1.1797784684       -1.2105851168       -1.0389108101
 C         -2.0567146624       -0.3802505331       -0.3194665499
 C         -2.0612442362       -0.3735263869        1.0884418584
 CL        -3.1148248812        0.6557744054       -1.1641008644
 H         -1.2697319455       -1.3169325561        2.8621277338
 H         -2.7758608835        0.2394514275        1.6187735909
 H         -1.2155228847       -1.2244168278       -2.1188755028
 H          0.2826018827       -2.8056461563        1.6067149898
 H          0.3271508163       -2.7463905943       -0.8796642449
